16

C      27.15       1.62      17.42
C      27.05       2.33      18.74
C      27.61       3.58      18.92
C      26.43       1.69      19.81
C      26.84       4.27      22.55
C      26.93       3.56      21.23
C      26.38       2.31      21.05
C      27.56       4.20      20.15
H      25.96       1.87      21.78
H      27.95       5.05      20.27
O      26.31       3.60      23.51
O      27.23       5.43      22.66
H      28.03       4.02      18.19
H      26.04       0.83      19.69
O      27.68       2.29      16.46
O      26.76       0.46      17.31
